
Circuit: * title: simple circuit

Doing analysis at TEMP = 27.000000 and TNOM = 27.000000


No. of Data Rows : 1
op_TAB
@c[i] = 0.000000e+00
@g1[i] = -2.54235e-04
@r1[i] = 2.428134e-04
@r2[i] = -2.54235e-04
@r3[i] = -1.14215e-05
@r4[i] = 1.174094e-03
@r5[i] = -2.54235e-04
@r6[i] = 9.312805e-04
@r7[i] = 9.312805e-04
v(1) = 5.026261e+00
v(2) = 4.779742e+00
v(3) = 4.248216e+00
v(4) = 4.815245e+00
v(5) = 5.586461e+00
v(6) = -1.87151e+00
v(7) = -2.80798e+00
v(8) = -1.87151e+00
h1#branch = -9.31281e-04
vo#branch = 9.312805e-04
vs#branch = -2.42813e-04
op_END
ngspice-31 done
