
Circuit: * title: simple circuit

Doing analysis at TEMP = 27.000000 and TNOM = 27.000000


No. of Data Rows : 1
op_TAB
@g1[i] = 6.189645e-18
@r1[i] = -5.91995e-18
@r2[i] = 6.189645e-18
@r3[i] = 2.696940e-19
@r4[i] = 1.282784e-18
@r5[i] = -2.84796e-03
@r6[i] = 8.673617e-19
@r7[i] = 1.836888e-20
v(1) = 0.000000e+00
v(2) = 6.175078e-15
v(3) = 1.866235e-14
v(4) = 5.329071e-15
v(5) = 8.769316e+00
v(6) = -1.75721e-15
v(7) = -1.77636e-15
v(8) = -1.75721e-15
h1#branch = 2.847963e-03
vc#branch = -2.84796e-03
vo#branch = 8.673617e-19
vs#branch = 5.919951e-18
op_END
ngspice-31 done
