
Circuit: * title: simple circuit

Doing analysis at TEMP = 27.000000 and TNOM = 27.000000


No. of Data Rows : 1
Doing analysis at TEMP = 27.000000 and TNOM = 27.000000


Initial Transient Solution
--------------------------

Node                                   Voltage
----                                   -------
1                                            0
2                                 -5.55005e-13
3                                 -1.75167e-12
4                                 -4.75076e-13
5                                      8.40388
6                                  1.84644e-13
8                                  1.84644e-13
7                                  2.77037e-13
h1#branch                           0.00277037
vo#branch                          -9.1881e-17
vs#branch                         -5.46663e-16


No. of Data Rows : 2008

The file "trans.ps" may be printed on a postscript printer.
trans_FIG
ngspice-31 done
