
Circuit: * title: simple circuit

Doing analysis at TEMP = 27.000000 and TNOM = 27.000000


No. of Data Rows : 1
Doing analysis at TEMP = 27.000000 and TNOM = 27.000000


Initial Transient Solution
--------------------------

Node                                   Voltage
----                                   -------
1                                            0
2                                 -5.34373e-13
3                                 -1.61499e-12
4                                 -4.61162e-13
5                                      8.40388
6                                  1.80214e-13
8                                  1.80214e-13
7                                  2.72928e-13
h1#branch                           0.00272928
vo#branch                          -8.8954e-17
vs#branch                         -5.12296e-16


No. of Data Rows : 2008

The file "trans.ps" may be printed on a postscript printer.
trans_FIG
ngspice-31 done
