
Circuit: * title: simple circuit

Doing analysis at TEMP = 27.000000 and TNOM = 27.000000


No. of Data Rows : 1
op_TAB
@g1[i] = 2.140176e-18
@r1[i] = -2.04403e-18
@r2[i] = 2.140176e-18
@r3[i] = 9.614768e-20
@r4[i] = 4.331265e-19
@r5[i] = -2.76726e-03
@r6[i] = 4.336809e-19
@r7[i] = 8.998149e-19
v(1) = 0.000000e+00
v(2) = 2.075218e-15
v(3) = 6.549660e-15
v(4) = 1.776357e-15
v(5) = 8.394437e+00
v(6) = -8.71527e-16
v(7) = -1.77636e-15
v(8) = -8.71527e-16
h1#branch = 2.767263e-03
vc#branch = -2.76726e-03
vo#branch = 4.336809e-19
vs#branch = 2.044028e-18
op_END
ngspice-31 done
