
Circuit: *

Doing analysis at TEMP = 27.000000 and TNOM = 27.000000


No. of Data Rows : 1
op_TAB
@g1[i] = -2.51168e-04
@id[current] = 1.038991e-03
@r1[i] = 2.402240e-04
@r2[i] = -2.51168e-04
@r3[i] = -1.09438e-05
@r4[i] = 1.209137e-03
@r5[i] = -1.29016e-03
@r6[i] = 9.689131e-04
@r7[i] = 9.689131e-04
v(1) = 5.239365e+00
v(2) = 4.988788e+00
v(3) = 4.482071e+00
v(4) = 5.023118e+00
v(5) = 8.995714e+00
v(6) = -1.96295e+00
v(7) = -2.97281e+00
v(8) = -1.96295e+00
h1#branch = 7.007738e-05
va#branch = -2.40224e-04
vo#branch = 9.689131e-04
op_END
ngspice-31 done
